6
CH3CL_CL_system2_16
 C                 -0.02617100   -0.17551700   -0.09959500
 H                  0.94377800    0.11078400   -0.47345800
 H                 -0.87968600    0.36936100   -0.47020100
 H                 -0.07694200   -0.54614700    0.91182200
 Cl                 0.29643500    2.06622100    1.19451000
 Cl                -0.28712300   -2.00435800   -1.15957000
