6
CH3CL_CL_system2_04
 C                  0.04849200    0.34336900    0.19943400
 H                  0.93632400    0.21003200   -0.40627900
 H                 -0.84560500    0.46256500   -0.39998900
 H                 -0.05856700   -0.43050300    0.94940700
 Cl                 0.28358200    1.97757000    1.14352600
 Cl                -0.30107300   -2.10185300   -1.21578800
