6
CH3CL_CL_system2_05
 C                  0.04261700    0.30298700    0.17615700
 H                  0.93879300    0.19073300   -0.41999600
 H                 -0.85319100    0.44506800   -0.41418400
 H                 -0.06220800   -0.45310500    0.94322500
 Cl                 0.28400500    1.98033000    1.14510900
 Cl                -0.29924600   -2.08916900   -1.20847300
