6
CH3CL_CL_system2_19
 C                 -0.04472900   -0.30437200   -0.17385100
 H                  0.92097300    0.06882000   -0.48867500
 H                 -0.87073500    0.32195700   -0.48457700
 H                 -0.08093000   -0.57802400    0.87266300
 Cl                 0.29985300    2.08954600    1.20778400
 Cl                -0.28367700   -1.98010000   -1.14545400
