6
CH3CL_CL_system2_20
 C                 -0.05059700   -0.34478900   -0.19698300
 H                  0.91274100    0.04839300   -0.49719500
 H                 -0.86882400    0.29995100   -0.49310200
 H                 -0.08346200   -0.59529900    0.85626200
 Cl                 0.30172300    2.10231500    1.21504700
 Cl                -0.28329700   -1.97740400   -1.14388700
