6
CH3CL_CL_system2_03
 C                  0.05283700    0.37300200    0.21648500
 H                  0.93574900    0.22734700   -0.39493200
 H                 -0.84034300    0.47867200   -0.38820100
 H                 -0.05542300   -0.41137700    0.95640100
 Cl                 0.28415700    1.98180500    1.14599600
 Cl                -0.30332800   -2.11752000   -1.22483400
