6
CH3CL_CL_system2_11
 C                  0.00518200    0.04312000    0.02648900
 H                  0.95850700    0.13498800   -0.46316000
 H                 -0.88411300    0.39876600   -0.46325400
 H                 -0.07641600   -0.52608400    0.93562600
 Cl                 0.29106600    2.02969100    1.17347000
 Cl                -0.29278600   -2.04471000   -1.18282500
