6
CH3CL_CL_system2_09
 C                  0.01774400    0.13065300    0.07686600
 H                  0.95400000    0.14589900   -0.45666400
 H                 -0.87927500    0.40688500   -0.45289900
 H                 -0.07216900   -0.51268300    0.93681100
 Cl                 0.28876100    2.01323400    1.16409800
 Cl                -0.29487600   -2.05889300   -1.19107000
